Circuit: * C:\Users\jeann\Documents\TD\td-fpga-developing-board\AnalogIn.asc

Direct Newton iteration for .op point succeeded.

Date: Mon May 17 15:27:59 2021
Total elapsed time: 0.326 seconds.

tnom = 27
temp = 27
method = modified trap
totiter = 3910
traniter = 3876
tranpoints = 1479
accept = 1311
rejected = 168
matrix size = 13
fillins = 1
solver = Normal
Matrix Compiler1: 490 bytes object code size  0.2/0.1/[0.1]
Matrix Compiler2: 1011 bytes object code size  0.1/0.2/[0.1]


