Circuit: * C:\Users\jeann\Documents\TD\td-fpga-developing-board\AnalogIn.asc

Direct Newton iteration for .op point succeeded.

Date: Sat Jun 05 15:21:22 2021
Total elapsed time: 0.080 seconds.

tnom = 27
temp = 27
method = modified trap
totiter = 2142
traniter = 2107
tranpoints = 1046
accept = 1046
rejected = 0
matrix size = 15
fillins = 1
solver = Normal
Matrix Compiler1: 608 bytes object code size  0.2/0.1/[0.1]
Matrix Compiler2: 1.12 KB object code size  0.2/0.2/[0.1]


