Circuit: * C:\Users\jeann\Documents\TD\td-fpga-developing-board\AnalogIn.asc

Direct Newton iteration for .op point succeeded.

Date: Mon May 17 15:08:17 2021
Total elapsed time: 0.274 seconds.

tnom = 27
temp = 27
method = modified trap
totiter = 4037
traniter = 4002
tranpoints = 1527
accept = 1343
rejected = 184
matrix size = 13
fillins = 1
solver = Normal
Matrix Compiler1: 490 bytes object code size  0.2/0.1/[0.1]
Matrix Compiler2: 1011 bytes object code size  0.1/0.2/[0.1]


