Circuit: * C:\Users\jeann\Documents\TD\td-fpga-developing-board\AnalogIn.asc

Direct Newton iteration for .op point succeeded.

Date: Tue May 25 15:19:06 2021
Total elapsed time: 0.074 seconds.

tnom = 27
temp = 27
method = modified trap
totiter = 4252
traniter = 4207
tranpoints = 1956
accept = 1854
rejected = 102
matrix size = 13
fillins = 1
solver = Normal
Matrix Compiler1: 490 bytes object code size  0.1/0.1/[0.1]
Matrix Compiler2: 1011 bytes object code size  0.1/0.2/[0.1]


