Circuit: * C:\Users\jeann\Documents\TD\td-fpga-developing-board\AnalogIn.asc

Direct Newton iteration for .op point succeeded.

Date: Mon May 17 15:05:47 2021
Total elapsed time: 0.310 seconds.

tnom = 27
temp = 27
method = modified trap
totiter = 3430
traniter = 3421
tranpoints = 1407
accept = 1274
rejected = 133
matrix size = 13
fillins = 1
solver = Normal
Matrix Compiler1: 490 bytes object code size  0.2/0.1/[0.1]
Matrix Compiler2: 1011 bytes object code size  0.1/0.2/[0.1]


