Circuit: * C:\Users\jeann\Documents\TD\td-fpga-developing-board\AnalogIn.asc

Direct Newton iteration for .op point succeeded.

Date: Tue May 18 13:23:45 2021
Total elapsed time: 0.119 seconds.

tnom = 27
temp = 27
method = modified trap
totiter = 2168
traniter = 2133
tranpoints = 1045
accept = 1045
rejected = 0
matrix size = 13
fillins = 1
solver = Normal
Matrix Compiler1: 490 bytes object code size  0.2/0.1/[0.1]
Matrix Compiler2: 1011 bytes object code size  0.2/0.8/[0.1]


