Circuit: * C:\Users\jeann\Documents\TD\td-fpga-developing-board\AnalogIn.asc

WARNING: Less than two connections to node VINP2.  This node is used by V3.
WARNING: Less than two connections to node VINM2.  This node is used by V4.
Direct Newton iteration for .op point succeeded.

Date: Thu Jun 03 16:30:27 2021
Total elapsed time: 0.061 seconds.

tnom = 27
temp = 27
method = trap
totiter = 32
traniter = 0
tranpoints = 0
accept = 0
rejected = 0
matrix size = 16
fillins = 6
solver = Normal
Matrix Compiler1:      46 opcodes
Matrix Compiler2:      98 opcodes

